[TITLE]
;;Project Title/Notes

[OPTIONS]
;;Option             Value
FLOW_UNITS           LPS
INFILTRATION         HORTON
FLOW_ROUTING         DYNWAVE
LINK_OFFSETS         DEPTH
MIN_SLOPE            0
ALLOW_PONDING        NO
SKIP_STEADY_STATE    NO

START_DATE           05/08/2021
START_TIME           00:00:00
REPORT_START_DATE    05/09/2021
REPORT_START_TIME    00:00:00
END_DATE             05/09/2021
END_TIME             23:59:00
SWEEP_START          01/01
SWEEP_END            12/31
DRY_DAYS             0
REPORT_STEP          00:10:00
WET_STEP             00:05:00
DRY_STEP             00:05:00
ROUTING_STEP         0:00:30 

INERTIAL_DAMPING     PARTIAL
NORMAL_FLOW_LIMITED  BOTH
FORCE_MAIN_EQUATION  H-W
VARIABLE_STEP        0.75
LENGTHENING_STEP     0
MIN_SURFAREA         1.167
MAX_TRIALS           8
HEAD_TOLERANCE       0.0015
SYS_FLOW_TOL         5
LAT_FLOW_TOL         5
MINIMUM_STEP         0.5
THREADS              1

[EVAPORATION]
;;Data Source    Parameters
;;-------------- ----------------
CONSTANT         0.0
DRY_ONLY         NO

[JUNCTIONS]
;;Name           Elevation  MaxDepth   InitDepth  SurDepth   Aponded   
;;-------------- ---------- ---------- ---------- ---------- ----------
2                -1.239     0.9125     0          0          0         
3                -1.312     1.13       0          0          0         
4                -1.358     1.56       0          0          0         
5                -1.393     1.64       0          0          0         
6                -1.444     1.46       0          0          0         
7                -1.52      1.55       0          0          0         
8                -1.56      1.56       0          0          0         
9                -1.595     1.8        0          0          0         
10               -1.63      1.8        0          0          0         
11               -1.6599    1.8        0          0          0         
12               -1.695     1.8        0          0          0         
14               -1.773     1.8        0          0          0         
15               -1.803     1.8        0          0          0         
17               -1.87      1.8        0          0          0         
18               -1.879     1.8        0          0          0         
19               -1.93      1.8        0          0          0         
20               -1.958     1.8        0          0          0         
21               -1.985     1.8        0          0          0         
22               -2.071     1.8        0          0          0         
23               -1.875     1.6        0          0          0         
24               -1.757     1.6        0          0          0         
25               -1.705     1.6        0          0          0         
26               -2.095     1.73       0          0          0         
27               -2.119     1.73       0          0          0         
29               -1.178     1.22       0          0          0         
30               -1.13      0.82       0          0          0         
43               -1.485     1.5        0          0          0         
44               -1.549     1.5        0          0          0         
45               -1.57      1.3        0          0          0         
46               -1.65      1.4        0          0          0         
47               -1.679     1.5        0          0          0         
1                -1.829     1.8        0          0          0         
13               -2.044     1.8        0          0          0         
16               -2.429     1.8        0          0          0         
31               -1.387     1.5        0          0          0         
32               -1.345     1.5        0          0          0         

[OUTFALLS]
;;Name           Elevation  Type       Stage Data       Gated    Route To        
;;-------------- ---------- ---------- ---------------- -------- ----------------
28               -2.525     TIMESERIES 0#               NO                       

[STORAGE]
;;Name           Elev.    MaxDepth   InitDepth  Shape      Curve Name/Params            N/A      Fevap    Psi      Ksat     IMD     
;;-------------- -------- ---------- ----------- ---------- ---------------------------- -------- --------          -------- --------
33               -3.0158  2.8        0.7        FUNCTIONAL 0         0         7.84     0        0       

[CONDUITS]
;;Name           From Node        To Node          Length     Roughness  InOffset   OutOffset  InitFlow   MaxFlow   
;;-------------- ---------------- ---------------- ---------- ---------- ---------- ---------- ---------- ----------
2                2                3                28         0.01       0          0          0          0         
3                3                4                17         0.01       0          0          0          0         
4                4                5                13         0.01       0          0          0          0         
5                5                6                19         0.01       0          0          0          0         
6                6                7                28         0.01       0          0          0          0         
7                7                8                15         0.01       0          0          0          0         
8                8                9                13         0.01       0          0          0          0         
9                9                10               13         0.01       0          0          0          0         
10               10               11               11         0.01       0          0          0          0         
11               11               12               13         0.01       0          0          0          0         
;ÆÂ¶È 0.0027
14               14               15               11         0.01       0          0          0          0         
17               17               18               15         0.01       0          0          0          0         
18               18               19               18.5       0.01       0          0          0          0         
19               19               20               12         0.01       0          0          0          0         
20               20               21               12.5       0.01       0          0          0          0         
22               22               26               8          0.01       0          0          0          0         
23               26               27               8          0.01       0          0          0          0         
31               30               29               16         0.01       0          0          0          0         
32               29               25               9          0.01       0          0.5        0          0         
33               25               24               12.5       0.01       0          0          0          0         
34               24               23               28         0.01       0          0          0          0         
35               23               22               12         0.01       0          0.16       0          0         
36               43               44               21.5       0.01       0          0          0          0         
;i=0.003
37               44               45               7          0.01       0          0          0          0         
38               45               46               25.5       0.01       0          0          0          0         
40               47               25               8          0.01       0          0          0          0         
39               46               47               9          0.01       0          0          0          0         
1                12               14               29         0.01       0          0          0          0         
12               15               1                13         0.01       0          0          0          0         
13               1                17               20.5       0.01       0          0          0          0         
15               21               13               23.5       0.01       0          0          0          0         
16               13               22               15.2       0.01       0          0          0          0         
21               27               16               35.4       0.01       0          0          0          0         
25               32               31               14         0.01       0          0          0          0         
26               31               44               27         0.01       0          0.08       0          0         
27               16               28               11         0.01       0          0          0          0         

[XSECTIONS]
;;Link           Shape        Geom1            Geom2      Geom3      Geom4      Barrels    Culvert   
;;-------------- ------------ ---------------- ---------- ---------- ---------- ---------- ----------
2                CIRCULAR     0.16             0          0          0          1                    
3                CIRCULAR     0.16             0          0          0          1                    
4                CIRCULAR     0.16             0          0          0          1                    
5                CIRCULAR     0.16             0          0          0          1                    
6                CIRCULAR     0.16             0          0          0          1                    
7                CIRCULAR     0.225            0          0          0          1                    
8                CIRCULAR     0.225            0          0          0          1                    
9                CIRCULAR     0.225            0          0          0          1                    
10               CIRCULAR     0.225            0          0          0          1                    
11               CIRCULAR     0.225            0          0          0          1                    
14               CIRCULAR     0.225            0          0          0          1                    
17               CIRCULAR     0.225            0          0          0          1                    
18               CIRCULAR     0.225            0          0          0          1                    
19               CIRCULAR     0.225            0          0          0          1                    
20               CIRCULAR     0.3              0          0          0          1                    
22               CIRCULAR     0.3              0          0          0          1                    
23               CIRCULAR     0.3              0          0          0          1                    
31               CIRCULAR     0.110            0          0          0          1                    
32               CIRCULAR     0.110            0          0          0          1                    
33               CIRCULAR     0.225            0          0          0          1                    
34               CIRCULAR     0.225            0          0          0          1                    
35               CIRCULAR     0.225            0          0          0          1                    
36               CIRCULAR     0.225            0          0          0          1                    
37               CIRCULAR     0.225            0          0          0          1                    
38               CIRCULAR     0.225            0          0          0          1                    
40               CIRCULAR     0.225            0          0          0          1                    
39               CIRCULAR     0.225            0          0          0          1                    
1                CIRCULAR     0.225            0          0          0          1                    
12               CIRCULAR     0.225            0          0          0          1                    
13               CIRCULAR     0.225            0          0          0          1                    
15               CIRCULAR     0.3              0          0          0          1                    
16               CIRCULAR     0.3              0          0          0          1                    
21               CIRCULAR     0.315            0          0          0          1                    
25               CIRCULAR     0.225            0          0          0          1                    
26               CIRCULAR     0.225            0          0          0          1                    
27               CIRCULAR     0.315            0          0          0          1                    

[INFLOWS]
;;Node           Constituent      Time Series      Type     Mfactor  Sfactor  Baseline Pattern
;;-------------- ---------------- ---------------- -------- -------- -------- -------- --------
15               FLOW             7#               FLOW     1.0      50               
27               FLOW             T1               FLOW     1.0      1.0              
45               FLOW             8#               FLOW     1.0      50               

[TIMESERIES]
;;Name           Date       Time       Value     
;;-------------- ---------- ---------- ----------
T1               3/31/2021  02:40      1.737090602
T1               3/31/2021  02:45      1.621397375
T1               3/31/2021  02:50      1.514809301
T1               3/31/2021  02:55      1.463993254
T1               3/31/2021  03:00      1.485481321
T1               3/31/2021  03:05      1.455341813
T1               3/31/2021  03:10      1.372425696
T1               3/31/2021  03:15      1.422209991
T1               3/31/2021  03:20      1.509672035
T1               3/31/2021  03:25      1.579371944
T1               3/31/2021  03:30      1.576467521
T1               3/31/2021  03:35      1.575746492
T1               3/31/2021  03:40      1.510722573
T1               3/31/2021  03:45      1.512193727
T1               3/31/2021  03:50      2.145428965
T1               3/31/2021  03:55      2.699177992
T1               3/31/2021  04:00      2.844864215
T1               3/31/2021  04:05      2.839687027
T1               3/31/2021  04:10      2.686752537
T1               3/31/2021  04:15      2.508120276
T1               3/31/2021  04:20      2.421959146
T1               3/31/2021  04:25      2.514765062
T1               3/31/2021  04:30      2.730384671
T1               3/31/2021  04:35      2.749351377
T1               3/31/2021  04:40      2.758380915
T1               3/31/2021  04:45      1.542094575
T1               3/31/2021  04:50      0.685787482
T1               3/31/2021  04:55      1.130083316
T1               3/31/2021  05:00      1.433277425
T1               3/31/2021  05:05      1.350285414
T1               3/31/2021  05:10      1.212067247
T1               3/31/2021  05:15      1.127621286
T1               3/31/2021  05:20      1.06332482
T1               3/31/2021  05:25      1.050717861
T1               3/31/2021  05:30      1.055459649
T1               3/31/2021  05:35      1.054590844
T1               3/31/2021  05:40      1.00217114
T1               3/31/2021  05:45      1.02448851
T1               3/31/2021  05:50      1.128909701
T1               3/31/2021  05:55      1.121953491
T1               3/31/2021  06:00      1.05232965
T1               3/31/2021  06:05      1.065205004
T1               3/31/2021  06:10      1.015977215
T1               3/31/2021  06:15      0.730652588
T1               3/31/2021  06:20      1.86396331
T1               3/31/2021  06:25      2.585383366
T1               3/31/2021  06:30      2.110489393
T1               3/31/2021  06:35      1.854640885
T1               3/31/2021  06:40      1.837665024
T1               3/31/2021  06:45      1.792837102
T1               3/31/2021  06:50      1.666589461
T1               3/31/2021  06:55      1.669562506
T1               3/31/2021  07:00      1.66541706
T1               3/31/2021  07:05      1.646015866
T1               3/31/2021  07:10      1.733360036
T1               3/31/2021  07:15      1.682482598
T1               3/31/2021  07:20      1.720093462
T1               3/31/2021  07:25      1.899987156
T1               3/31/2021  07:30      2.230718411
T1               3/31/2021  07:35      1.248700928
T1               3/31/2021  07:40      0.569160848
T1               3/31/2021  07:45      0.903494824
T1               3/31/2021  07:50      1.087888075
T1               3/31/2021  07:55      1.126689495
T1               3/31/2021  08:00      1.094339429
T1               3/31/2021  08:05      1.074194703
T1               3/31/2021  08:10      1.018620026
T1               3/31/2021  08:15      1.048696473
T1               3/31/2021  08:20      1.075763125
T1               3/31/2021  08:25      1.037933345
T1               3/31/2021  08:30      1.004440131
T1               3/31/2021  08:35      1.015175939
T1               3/31/2021  08:40      0.731659275
T1               3/31/2021  08:45      2.071960247
T1               3/31/2021  08:50      2.600178376
T1               3/31/2021  08:55      2.005722109
T1               3/31/2021  09:00      1.852350586
T1               3/31/2021  09:05      1.774673756
T1               3/31/2021  09:10      1.686367507
T1               3/31/2021  09:15      1.668182845
T1               3/31/2021  09:20      1.708991086
T1               3/31/2021  09:25      1.644850986
T1               3/31/2021  09:30      1.637763712
T1               3/31/2021  09:35      1.612964176
T1               3/31/2021  09:40      1.51149552
T1               3/31/2021  09:45      1.535667113
T1               3/31/2021  09:50      1.582527291
T1               3/31/2021  09:55      1.554539733
T1               3/31/2021  10:00      1.568338306
T1               3/31/2021  10:05      1.540114182
T1               3/31/2021  10:10      1.56212979
T1               3/31/2021  10:15      1.523086302
T1               3/31/2021  10:20      1.54177025
T1               3/31/2021  10:25      1.55217397
T1               3/31/2021  10:30      1.515383443
T1               3/31/2021  10:35      1.545227672
T1               3/31/2021  10:40      1.498068491
T1               3/31/2021  10:45      1.504291497
T1               3/31/2021  10:50      1.492252207
T1               3/31/2021  10:55      1.502183119
T1               3/31/2021  11:00      1.528777127
T1               3/31/2021  11:05      1.522412535
T1               3/31/2021  11:10      1.528717626
T1               3/31/2021  11:15      1.507081699
T1               3/31/2021  11:20      1.513441332
T1               3/31/2021  11:25      1.538364966
T1               3/31/2021  11:30      1.490813911
T1               3/31/2021  11:35      1.511324976
T1               3/31/2021  11:40      1.499540385
T1               3/31/2021  11:45      1.50147247
T1               3/31/2021  11:50      1.505850968
T1               3/31/2021  11:55      1.476047494
T1               3/31/2021  12:00      1.473469844
T1               3/31/2021  12:05      1.515718335
T1               3/31/2021  12:10      1.50496397
T1               3/31/2021  12:15      1.465488052
T1               3/31/2021  12:20      1.546310879
T1               3/31/2021  12:25      1.460167274
T1               3/31/2021  12:30      1.460494257
T1               3/31/2021  12:35      1.505960616
T1               3/31/2021  12:40      1.48297573
T1               3/31/2021  12:45      1.488962718
T1               3/31/2021  12:50      1.485665467
T1               3/31/2021  12:55      1.489829917
T1               3/31/2021  13:00      1.474400993
T1               3/31/2021  13:05      1.441269312
T1               3/31/2021  13:10      1.427339706
T1               3/31/2021  13:15      1.465185725
T1               3/31/2021  13:20      1.493095656
T1               3/31/2021  13:25      1.455750615
T1               3/31/2021  13:30      1.422862892
T1               3/31/2021  13:35      1.471467425
T1               3/31/2021  13:40      1.438439999
T1               3/31/2021  13:45      1.414186616
T1               3/31/2021  13:50      1.442463283
T1               3/31/2021  13:55      1.401735638
T1               3/31/2021  14:00      1.417854807
T1               3/31/2021  14:05      1.425063108
T1               3/31/2021  14:10      1.420112658
T1               3/31/2021  14:15      1.483109289
T1               3/31/2021  14:20      1.425933813
T1               3/31/2021  14:25      1.405744686
T1               3/31/2021  14:30      1.462142334
T1               3/31/2021  14:35      1.450420851
T1               3/31/2021  14:40      1.439135309
T1               3/31/2021  14:45      1.448998418
T1               3/31/2021  14:50      1.398075248
T1               3/31/2021  14:55      1.444511299
T1               3/31/2021  15:00      1.384109085
T1               3/31/2021  15:05      1.39063891
T1               3/31/2021  15:10      1.429888362
T1               3/31/2021  15:15      1.429634445
T1               3/31/2021  15:20      1.399760266
T1               3/31/2021  15:25      1.387075796
T1               3/31/2021  15:30      1.425483021
T1               3/31/2021  15:35      1.404080866
T1               3/31/2021  15:40      1.35654135
T1               3/31/2021  15:45      1.37380562
T1               3/31/2021  15:50      1.34085345
T1               3/31/2021  15:55      1.373087044
T1               3/31/2021  16:00      1.399830544
T1               3/31/2021  16:05      1.36679815
T1               3/31/2021  16:10      1.329469777
T1               3/31/2021  16:15      1.360460602
T1               3/31/2021  16:20      1.365693422
T1               3/31/2021  16:25      1.360653733
T1               3/31/2021  16:30      1.415474251
T1               3/31/2021  16:35      1.415494589
T1               3/31/2021  16:40      1.419651628
T1               3/31/2021  16:45      1.431868249
T1               3/31/2021  16:50      1.433562867
T1               3/31/2021  16:55      1.419634327
T1               3/31/2021  17:00      1.38968532
T1               3/31/2021  17:05      1.372951313
T1               3/31/2021  17:10      1.416383291
T1               3/31/2021  17:15      1.415467816
T1               3/31/2021  17:20      1.456662897
T1               3/31/2021  17:25      1.451503898
T1               3/31/2021  17:30      1.495116939
T1               3/31/2021  17:35      1.520748032
T1               3/31/2021  17:40      1.438073792
T1               3/31/2021  17:45      1.497739471
T1               3/31/2021  17:50      1.505644242
T1               3/31/2021  17:55      1.512444344
T1               3/31/2021  18:00      1.517000469
T1               3/31/2021  18:05      1.399730726
T1               3/31/2021  18:10      0.531696527
T1               3/31/2021  18:15      1.029522634
T1               3/31/2021  18:20      0.822710139
T1               3/31/2021  18:25      0.792191156
T1               3/31/2021  18:30      0.841586652
T1               3/31/2021  18:35      0.832864251
T1               3/31/2021  18:40      0.783302251
T1               3/31/2021  18:45      0.765569426
T1               3/31/2021  18:50      0.749780888
T1               3/31/2021  18:55      0.779207735
T1               3/31/2021  19:00      0.777977291
T1               3/31/2021  19:05      0.742433035
T1               3/31/2021  19:10      0.747994214
T1               3/31/2021  19:15      0.774862062
T1               3/31/2021  19:20      0.760161006
T1               3/31/2021  19:25      0.75046301
T1               3/31/2021  19:30      0.782095937
T1               3/31/2021  19:35      0.807319154
T1               3/31/2021  19:40      0.758025144
T1               3/31/2021  19:45      0.746093362
T1               3/31/2021  19:50      0.704630156
T1               3/31/2021  19:55      0.687729161
T1               3/31/2021  20:00      0.720149546
T1               3/31/2021  20:05      0.754037075
T1               3/31/2021  20:10      0.705176978
T1               3/31/2021  20:15      0.107192302
;
7#               05/08/2021 00:00      0.702458413
7#               05/08/2021 00:10      0.702458413
7#               05/08/2021 00:20      0.702458413
7#               05/08/2021 00:30      0.702458413
7#               05/08/2021 00:40      0.702458413
7#               05/08/2021 00:50      0.702458413
7#               05/08/2021 01:00      0.702458413
7#               05/08/2021 01:10      0.702458413
7#               05/08/2021 01:20      0.702458413
7#               05/08/2021 01:30      0.702458413
7#               05/08/2021 01:40      0.702458413
7#               05/08/2021 01:50      0.702458413
7#               05/08/2021 02:00      0.702458413
7#               05/08/2021 02:10      0.702458413
7#               05/08/2021 02:20      0.702458413
7#               05/08/2021 02:30      0.702458413
7#               05/08/2021 02:40      0.702458413
7#               05/08/2021 02:50      0.702458413
7#               05/08/2021 03:00      0.702458413
7#               05/08/2021 03:10      0.702458413
7#               05/08/2021 03:20      0.702458413
7#               05/08/2021 03:30      0.702458413
7#               05/08/2021 03:40      0.702458413
7#               05/08/2021 03:50      0.702458413
7#               05/08/2021 04:00      0.702458413
7#               05/08/2021 04:10      0.702458413
7#               05/08/2021 04:20      0.702458413
7#               05/08/2021 04:30      0.702458413
7#               05/08/2021 04:40      0.702458413
7#               05/08/2021 04:50      0.702458413
7#               05/08/2021 05:00      0.702458413
7#               05/08/2021 05:10      0.702458413
7#               05/08/2021 05:20      0.702458413
7#               05/08/2021 05:30      0.702458413
7#               05/08/2021 05:40      0.702458413
7#               05/08/2021 05:50      0.702458413
7#               05/08/2021 06:00      0.702458413
7#               05/08/2021 06:10      0.702458413
7#               05/08/2021 06:20      0.702458413
7#               05/08/2021 06:30      0.702458413
7#               05/08/2021 06:40      0.702458413
7#               05/08/2021 06:50      0.702458413
7#               05/08/2021 07:00      0.702458413
7#               05/08/2021 07:10      0.702458413
7#               05/08/2021 07:20      0.702458413
7#               05/08/2021 07:30      0.702458413
7#               05/08/2021 07:40      0.702458413
7#               05/08/2021 07:50      0.702458413
7#               05/08/2021 08:00      0.702458413
7#               05/08/2021 08:10      0.702458413
7#               05/08/2021 08:20      0.702458413
7#               05/08/2021 08:30      0.702458413
7#               05/08/2021 08:40      0.702458413
7#               05/08/2021 08:50      0.702458413
7#               05/08/2021 09:00      0.702458413
7#               05/08/2021 09:10      0.702458413
7#               05/08/2021 09:20      0.702458413
7#               05/08/2021 09:30      0.702458413
7#               05/08/2021 09:40      0.702458413
7#               05/08/2021 09:50      0.702458413
7#               05/08/2021 10:00      0.702458413
7#               05/08/2021 10:10      0.702458413
7#               05/08/2021 10:20      0.702458413
7#               05/08/2021 10:30      0.702458413
7#               05/08/2021 10:40      0.702458413
7#               05/08/2021 10:50      0.702458413
7#               05/08/2021 11:00      0.702458413
7#               05/08/2021 11:10      0.702458413
7#               05/08/2021 11:20      0.702458413
7#               05/08/2021 11:30      0.702458413
7#               05/08/2021 11:40      0.702458413
7#               05/08/2021 11:50      0.702458413
7#               05/08/2021 12:00      0.702458413
7#               05/08/2021 12:10      0.702458413
7#               05/08/2021 12:20      0.702458413
7#               05/08/2021 12:30      0.702458413
7#               05/08/2021 12:40      0.702458413
7#               05/08/2021 12:50      0.702458413
7#               05/08/2021 13:00      0.702458413
7#               05/08/2021 13:10      0.702458413
7#               05/08/2021 13:20      0.702458413
7#               05/08/2021 13:30      0.702458413
7#               05/08/2021 13:40      0.702458413
7#               05/08/2021 13:50      0.702458413
7#               05/08/2021 14:00      0.702458413
7#               05/08/2021 14:10      0.702458413
7#               05/08/2021 14:20      0.702458413
7#               05/08/2021 14:30      0.702458413
7#               05/08/2021 14:40      0.702458413
7#               05/08/2021 14:50      0.702458413
7#               05/08/2021 15:00      0.702458413
7#               05/08/2021 15:10      0.702458413
7#               05/08/2021 15:20      0.702458413
7#               05/08/2021 15:30      0.702458413
7#               05/08/2021 15:40      0.702458413
7#               05/08/2021 15:50      0.702458413
7#               05/08/2021 16:00      0.702458413
7#               05/08/2021 16:10      0.702458413
7#               05/08/2021 16:20      0.702458413
7#               05/08/2021 16:30      0.702458413
7#               05/08/2021 16:40      0.702458413
7#               05/08/2021 16:50      0.702458413
7#               05/08/2021 17:00      0.702458413
7#               05/08/2021 17:10      0.702458413
7#               05/08/2021 17:20      0.702458413
7#               05/08/2021 17:30      0.702458413
7#               05/08/2021 17:40      0.702458413
7#               05/08/2021 17:50      0.702458413
7#               05/08/2021 18:00      0.702458413
7#               05/08/2021 18:10      0.702458413
7#               05/08/2021 18:20      0.702458413
7#               05/08/2021 18:30      0.702458413
7#               05/08/2021 18:40      0.702458413
7#               05/08/2021 18:50      0.702458413