[TITLE]
;;Project Title/Notes

[OPTIONS]
;;Option             Value
FLOW_UNITS           LPS
INFILTRATION         HORTON
FLOW_ROUTING         DYNWAVE
LINK_OFFSETS         DEPTH
MIN_SLOPE            0
ALLOW_PONDING        NO
SKIP_STEADY_STATE    NO

START_DATE           05/08/2021
START_TIME           00:00:00
REPORT_START_DATE    05/09/2021
REPORT_START_TIME    00:00:00
END_DATE             05/09/2021
END_TIME             23:59:00
SWEEP_START          01/01
SWEEP_END            12/31
DRY_DAYS             0
REPORT_STEP          00:10:00
WET_STEP             00:05:00
DRY_STEP             00:05:00
ROUTING_STEP         0:00:30 
RULE_STEP            00:00:00

INERTIAL_DAMPING     PARTIAL
NORMAL_FLOW_LIMITED  BOTH
FORCE_MAIN_EQUATION  H-W
VARIABLE_STEP        0.75
LENGTHENING_STEP     0
MIN_SURFAREA         1.167
MAX_TRIALS           8
HEAD_TOLERANCE       0.0015
SYS_FLOW_TOL         5
LAT_FLOW_TOL         5
MINIMUM_STEP         0.5
THREADS              1

[EVAPORATION]
;;Data Source    Parameters
;;-------------- ----------------
CONSTANT         0.0
DRY_ONLY         NO

[JUNCTIONS]
;;Name           Elevation  MaxDepth   InitDepth  SurDepth   Aponded   
;;-------------- ---------- ---------- ---------- ---------- ----------
2                -1.239     0.9125     0          0          0         
3                -1.312     1.13       0          0          0         
4                -1.358     1.56       0          0          0         
5                -1.393     1.64       0          0          0         
6                -1.444     1.46       0          0          0         
7                -1.52      1.55       0          0          0         
8                -1.56      1.56       0          0          0         
9                -1.595     1.8        0          0          0         
10               -1.63      1.8        0          0          0         
11               -1.6599    1.8        0          0          0         
12               -1.695     1.8        0          0          0         
14               -1.773     1.8        0          0          0         
15               -1.803     1.8        0          0          0         
17               -1.87      1.8        0          0          0         
18               -1.879     1.8        0          0          0         
19               -1.93      1.8        0          0          0         
20               -1.958     1.8        0          0          0         
21               -1.985     1.8        0          0          0         
22               -2.071     1.8        0          0          0         
23               -1.875     1.6        0          0          0         
24               -1.757     1.6        0          0          0         
25               -1.705     1.6        0          0          0         
26               -2.095     1.73       0          0          0         
27               -2.119     1.73       0          0          0         
29               -1.178     1.22       0          0          0         
30               -1.13      0.82       0          0          0         
43               -1.485     1.5        0          0          0         
44               -1.549     1.5        0          0          0         
45               -1.57      1.3        0          0          0         
46               -1.65      1.4        0          0          0         
47               -1.679     1.5        0          0          0         
1                -1.829     1.8        0          0          0         
13               -2.044     1.8        0          0          0         
16               -2.429     1.8        0          0          0         
31               -1.387     1.5        0          0          0         
32               -1.345     1.5        0          0          0         

[OUTFALLS]
;;Name           Elevation  Type       Stage Data       Gated    Route To        
;;-------------- ---------- ---------- ---------------- -------- ----------------
28               -2.525     TIMESERIES 0#               NO                       

[STORAGE]
;;Name           Elev.    MaxDepth   InitDepth  Shape      Curve Name/Params            N/A      Fevap    Psi      Ksat     IMD     
;;-------------- -------- ---------- ----------- ---------- ---------------------------- -------- --------          -------- --------
33               -3.0158  2.8        0.7        FUNCTIONAL 0         0         7.84     0        0       

[CONDUITS]
;;Name           From Node        To Node          Length     Roughness  InOffset   OutOffset  InitFlow   MaxFlow   
;;-------------- ---------------- ---------------- ---------- ---------- ---------- ---------- ---------- ----------
2                2                3                28         0.01       0          0          0          0         
3                3                4                17         0.01       0          0          0          0         
4                4                5                13         0.01       0          0          0          0         
5                5                6                19         0.01       0          0          0          0         
6                6                7                28         0.01       0          0          0          0         
7                7                8                15         0.01       0          0          0          0         
8                8                9                13         0.01       0          0          0          0         
9                9                10               13         0.01       0          0          0          0         
10               10               11               11         0.01       0          0          0          0         
11               11               12               13         0.01       0          0          0          0         
;ÆÂ¶È 0.0027
14               14               15               11         0.01       0          0          0          0         
17               17               18               15         0.01       0          0          0          0         
18               18               19               18.5       0.01       0          0          0          0         
19               19               20               12         0.01       0          0          0          0         
20               20               21               12.5       0.01       0          0          0          0         
22               22               26               8          0.01       0          0          0          0         
23               26               27               8          0.01       0          0          0          0         
31               30               29               16         0.01       0          0          0          0         
32               29               25               9          0.01       0          0.5        0          0         
33               25               24               12.5       0.01       0          0          0          0         
34               24               23               28         0.01       0          0          0          0         
35               23               22               12         0.01       0          0.16       0          0         
36               43               44               21.5       0.01       0          0          0          0         
;i=0.003
37               44               45               7          0.01       0          0          0          0         
38               45               46               25.5       0.01       0          0          0          0         
40               47               25               8          0.01       0          0          0          0         
39               46               47               9          0.01       0          0          0          0         
1                12               14               29         0.01       0          0          0          0         
12               15               1                13         0.01       0          0          0          0         
13               1                17               20.5       0.01       0          0          0          0         
15               21               13               23.5       0.01       0          0          0          0         
16               13               22               15.2       0.01       0          0          0          0         
21               27               16               35.4       0.01       0          0          0          0         
25               32               31               14         0.01       0          0          0          0         
26               31               44               27         0.01       0          0.08       0          0         
27               16               28               11         0.01       0          0          0          0         

[XSECTIONS]
;;Link           Shape        Geom1            Geom2      Geom3      Geom4      Barrels    Culvert   
;;-------------- ------------ ---------------- ---------- ---------- ---------- ---------- ----------
2                CIRCULAR     0.16             0          0          0          1                    
3                CIRCULAR     0.16             0          0          0          1                    
4                CIRCULAR     0.16             0          0          0          1                    
5                CIRCULAR     0.16             0          0          0          1                    
6                CIRCULAR     0.16             0          0          0          1                    
7                CIRCULAR     0.225            0          0          0          1                    
8                CIRCULAR     0.225            0          0          0          1                    
9                CIRCULAR     0.225            0          0          0          1                    
10               CIRCULAR     0.225            0          0          0          1                    
11               CIRCULAR     0.225            0          0          0          1                    
14               CIRCULAR     0.225            0          0          0          1                    
17               CIRCULAR     0.225            0          0          0          1                    
18               CIRCULAR     0.225            0          0          0          1                    
19               CIRCULAR     0.225            0          0          0          1                    
20               CIRCULAR     0.3              0          0          0          1                    
22               CIRCULAR     0.3              0          0          0          1                    
23               CIRCULAR     0.3              0          0          0          1                    
31               CIRCULAR     0.110            0          0          0          1                    
32               CIRCULAR     0.110            0          0          0          1                    
33               CIRCULAR     0.225            0          0          0          1                    
34               CIRCULAR     0.225            0          0          0          1                    
35               CIRCULAR     0.225            0          0          0          1                    
36               CIRCULAR     0.225            0          0          0          1                    
37               CIRCULAR     0.225            0          0          0          1                    
38               CIRCULAR     0.225            0          0          0          1                    
40               CIRCULAR     0.225            0          0          0          1                    
39               CIRCULAR     0.225            0          0          0          1                    
1                CIRCULAR     0.225            0          0          0          1                    
12               CIRCULAR     0.225            0          0          0          1                    
13               CIRCULAR     0.225            0          0          0          1                    
15               CIRCULAR     0.3              0          0          0          1                    
16               CIRCULAR     0.3              0          0          0          1                    
21               CIRCULAR     0.315            0          0          0          1                    
25               CIRCULAR     0.225            0          0          0          1                    
26               CIRCULAR     0.225            0          0          0          1                    
27               CIRCULAR     0.315            0          0          0          1                    

[INFLOWS]
;;   Constituent Time Series Type   Mfactor Sfactor Baseline Pattern
15   FLOW        0#          FLOW   1.0     1.0                   
27   FLOW        T1          FLOW   1.0     1.0                   
45   FLOW        8#          FLOW   1.0     1.0                   

[TIMESERIES]
;;    Date         Time     Value                  Name 
0     05/08/2021   0:02     -1.8778                   
1     05/08/2021   0:07     -1.8778                   
2     05/08/2021   0:12     -1.8778                   
3     05/08/2021   0:17     -1.8778                   
4     05/08/2021   0:22     -1.8778                   
5     05/08/2021   0:27     -1.8778                   
6     05/08/2021   0:32     -1.8778                   
7     05/08/2021   0:37     -1.8778                   
8     05/08/2021   0:42     -1.8778                   
9     05/08/2021   0:47     -1.8778                   
10    05/08/2021   0:52     -1.8778                   
11    05/08/2021   0:57     -1.8778                   
12    05/08/2021   1:02     -1.8778                   
13    05/08/2021   1:07     -1.8778                   
14    05/08/2021   1:12     -1.8778                   
15    05/08/2021   1:17     -1.8778                   
16    05/08/2021   1:22     -1.8778                   
17    05/08/2021   1:27     -1.8778                   
18    05/08/2021   1:32     -1.8778                   
19    05/08/2021   1:37     -1.8778                   
20    05/08/2021   1:42     -1.8778                   
21    05/08/2021   1:47     -1.8778                   
22    05/08/2021   1:52     -1.8778                   
23    05/08/2021   1:57     -1.8778                   
24    05/08/2021   2:02     -1.8778                   
25    05/08/2021   2:07     -1.8778                   
26    05/08/2021   2:12     -1.8778                   
27    05/08/2021   2:17     -1.8778                   
28    05/08/2021   2:22     -1.8778                   
29    05/08/2021   2:27     -1.8778                   
30    05/08/2021   2:32     -1.8778                   
31    05/08/2021   2:37     -1.8778                   
32    05/08/2021   2:42     -1.8778                   
33    05/08/2021   2:47     -1.8778                   
34    05/08/2021   2:52     -1.8778                   
35    05/08/2021   2:57     -1.8778                   
36    05/08/2021   3:02     -1.8778                   
37    05/08/2021   3:07     -1.8778                   
38    05/08/2021   3:12     -1.8778                   
39    05/08/2021   3:17     -1.8778                   
40    05/08/2021   3:22     -1.8778                   
41    05/08/2021   3:27     -1.8778                   
42    05/08/2021   3:32     -1.8778                   
43    05/08/2021   3:37     -1.8778                   
44    05/08/2021   3:42     -1.8778                   
45    05/08/2021   3:47     -1.8778                   
46    05/08/2021   3:52     -1.8778                   
47    05/08/2021   3:57     -1.8778                   
48    05/08/2021   4:02     -1.8778                   
49    05/08/2021   4:07     -1.8778                   
50    05/08/2021   4:12     -1.8778                   
51    05/08/2021   4:17     -1.8778                   
52    05/08/2021   4:22     -1.8778                   
53    05/08/2021   4:27     -1.8778                   
54    05/08/2021   4:32     -1.8778                   
55    05/08/2021   4:37     -1.8778                   
56    05/08/2021   4:42     -1.8778                   
57    05/08/2021   4:47     -1.8778                   
58    05/08/2021   4:52     -1.8778                   
59    05/08/2021   4:57     -1.8778                   
60    05/08/2021   5:02     -1.8778                   
61    05/08/2021   5:07     -1.8778                   
62    05/08/2021   5:12     -1.8778                   
63    05/08/2021   5:17     -1.8778                   
64    05/08/2021   5:22     -1.8778                   
65    05/08/2021   5:27     -1.8778                   
66    05/08/2021   5:32     -1.8778                   
67    05/08/2021   5:37     -1.8778                   
68    05/08/2021   5:42     -1.8778                   
69    05/08/2021   5:47     -1.8778                   
70    05/08/2021   5:52     -1.8778                   
71    05/08/2021   5:57     -1.8778                   
72    05/08/2021   6:02     -1.8778                   
73    05/08/2021   6:07     -1.8778                   
74    05/08/2021   6:12     -1.8778                   
75    05/08/2021   6:17     -1.8778                   
76    05/08/2021   6:22     -1.8778                   
77    05/08/2021   6:27     -1.8778                   
78    05/08/2021   6:32     -1.8778                   
79    05/08/2021   6:37     -1.8778                   
80    05/08/2021   6:42     -1.8778                   
81    05/08/2021   6:47     -1.8778                   
82    05/08/2021   6:52     -1.8778                   
83    05/08/2021   6:57     -1.8778                   
84    05/08/2021   7:02     -1.8778                   
85    05/08/2021   7:07     -1.8778                   
86    05/08/2021   7:12     -1.8778                   
87    05/08/2021   7:17     -1.8778                   
88    05/08/2021   7:22     -1.8778                   
89    05/08/2021   7:27     -1.8778                   
90    05/08/2021   7:32     -1.8778                   
91    05/08/2021   7:37     -1.8778                   
92    05/08/2021   7:42     -1.8778                   
93    05/08/2021   7:47     -1.8778                   
94    05/08/2021   7:52     -1.8778                   
95    05/08/2021   7:57     -1.8778                   
96    05/08/2021   8:02     -1.8778                   
97    05/08/2021   8:07     -1.8778                   
98    05/08/2021   8:12     -1.8778                   
99    05/08/2021   8:17     -1.8778                   
100   05/08/2021   8:22     -1.8778                   
101   05/08/2021   8:27     -1.8778                   
102   05/08/2021   8:32     -1.8778                   
103   05/08/2021   8:37     -1.8778                   
104   05/08/2021   8:42     -1.8778                   
105   05/08/2021   8:47     -1.8778                   
106   05/08/2021   8:52     -1.8778                   
107   05/08/2021   8:57     -1.8778                   
108   05/08/2021   9:02     -1.8778                   
109   05/08/2021   9:07     -1.8778                   
110   05/08/2021   9:12     -1.8778                   
111   05/08/2021   9:17     -1.8778                   
112   05/08/2021   9:22     -1.8778                   
113   05/08/2021   9:27     -1.8778                   
114   05/08/2021   9:32     -1.8778                   
115   05/08/2021   9:37     -1.8778                   
116   05/08/2021   9:42     -1.8778                   
117   05/08/2021   9:47     -1.8778                   
118   05/08/2021   9:52     -1.8778                   
119   05/08/2021   9:57     -1.8778                   
120   05/08/2021   10:02    -1.8778                   
121   05/08/2021   10:07    -1.8778                   
122   05/08/2021   10:12    -1.8778                   
123   05/08/2021   12:17    -1.8778                   
124   05/08/2021   12:22    -1.8778                   
125   05/08/2021   12:27    -1.8778                   
126   05/08/2021   12:32    -1.8778                   
127   05/08/2021   12:37    -1.8778                   
128   05/08/2021   12:42    -1.8778                   
129   05/08/2021   12:47    -1.8778                   
130   05/08/2021   12:52    -1.8778                   
131   05/08/2021   12:57    -1.8778                   
132   05/08/2021   13:02    -1.8778                   
133   05/08/2021   13:07    -1.8778                   
134   05/08/2021   13:12    -1.8778                   
135   05/08/2021   13:17    -1.8778                   
136   05/08/2021   13:22    -1.8778                   
137   05/08/2021   13:27    -1.8778                   
138   05/08/2021   13:32    -1.8778                   
139   05/08/2021   13:37    -1.8778                   
140   05/08/2021   13:42    -1.8778                   
141   05/08/2021   13:47    -1.8778                   
142   05/08/2021   13:52    -1.8778                   
143   05/08/2021   13:57    -1.8778                   
144   05/08/2021   14:02    -1.8778                   
145   05/08/2021   14:07    -1.8778                   
146   05/08/2021   14:12    -1.8778                   
147   05/08/2021   14:17    -1.8778                   
148   05/08/2021   14:22    -1.8778                   
149   05/08/2021   14:27    -1.8778                   
150   05/08/2021   14:32    -1.8778                   
151   05/08/2021   14:37    -1.8778                   
152   05/08/2021   14:42    -1.8778                   
153   05/08/2021   14:47    -1.8778                   
154   05/08/2021   14:52    -1.8778                   
155   05/08/2021   14:57    -1.8778                   
156   05/08/2021   15:02    -1.8778                   
157   05/08/2021   15:07    -1.8778                   
158   05/08/2021   15:12    -1.8778                   
159   05/08/2021   15:17    -1.8778                   
160   05/08/2021   15:22    -1.8778                   
161   05/08/2021   15:27    -1.8778                   
162   05/08/2021   15:32    -1.8778                   
163   05/08/2021   15:37    -1.8778                   
164   05/08/2021   15:42    -1.8778                   
165   05/08/2021   15:47    -1.8778                   
166   05/08/2021   15:52    -1.8778                   
167   05/08/2021   15:57    -1.8778                   
168   05/08/2021   16:02    -1.8778                   
169   05/08/2021   16:07    -1.8778                   
170   05/08/2021   16:12    -1.8778                   
171   05/08/2021   16:17    -1.8778                   
172   05/08/2021   16:22    -1.8778                   
173   05/08/2021   16:27    -1.8778                   
174   05/08/2021   16:32    -1.8778                   
175   05/08/2021   16:37    -1.8778                   
176   05/08/2021   16:42    -1.8778                   
177   05/08/2021   16:47    -1.8778                   
178   05/08/2021   16:52    -1.8778                   
179   05/08/2021   16:57    -1.8778                   
180   05/08/2021   17:02    -1.8778                   
181   05/08/2021   17:07    -1.8778                   
182   05/08/2021   17:12    -1.8778                   
183   05/08/2021   17:17    -1.8778                   
184   05/08/2021   17:22    -1.8778                   
185   05/08/2021   17:27    -1.8778                   
186   05/08/2021   17:32    -1.8778                   
187   05/08/2021   17:37    -1.8778                   
188   05/08/2021   17:42    -1.8778                   
189   05/08/2021   17:47    -1.8778                   
190   05/08/2021   17:52    -1.8778                   
191   05/08/2021   17:57    -1.8778                   
192   05/08/2021   18:02    -1.8778                   
193   05/08/2021   18:07    -1.8778                   
194   05/08/2021   18:12    -1.8778                   
195   05/08/2021   18:17    -1.8778                   
196   05/08/2021   18:22    -1.8778                   
197   05/08/2021   18:27    -1.8778                   
198   05/08/2021   18:32    -1.8778                   
199   05/08/2021   18:37    -1.8778                   
200   05/08/2021   18:42    -1.8778                   
201   05/08/2021   18:47    -1.8778                   
202   05/08/2021   18:52    -1.8778                   
203   05/08/2021   18:57    -1.8778                   
204   05/08/2021   19:02    -1.8778                   
205   05/08/2021   19:07    -1.8778                   
206   05/08/2021   19:12    -1.8778                   
207   05/08/2021   19:17    -1.8778                   
208   05/08/2021   19:22    -1.8778                   
209   05/08/2021   19:27    -1.8778                   
210   05/08/2021   19:32    -1.8778                   
211   05/08/2021   19:37    -1.8778                   
212   05/08/2021   19:42    -1.8778                   
213   05/08/2021   19:47    -1.8778                   
214   05/08/2021   19:52    -1.8778                   
215   05/08/2021   19:57    -1.8778                   
216   05/08/2021   20:02    -1.8778                   
217   05/08/2021   20:07    -1.8778                   
218   05/08/2021   20:12    -1.8778                   
219   05/08/2021   20:17    -1.8778                   
220   05/08/2021   20:22    -1.8778                   
221   05/08/2021   20:27    -1.8778                   
222   05/08/2021   20:32    -1.8778                   
223   05/08/2021   20:37    -1.8778                   
224   05/08/2021   20:42    -1.8778                   
225   05/08/2021   20:47    -1.8778                   
226   05/08/2021   20:52    -1.8778                   
227   05/08/2021   20:57    -1.8778                   
228   05/08/2021   21:02    -1.8778                   
229   05/08/2021   21:07    -1.8778                   
230   05/08/2021   21:12    -1.8778                   
231   05/08/2021   21:17    -1.8778                   
232   05/08/2021   21:22    -1.8778                   
233   05/08/2021   21:27    -1.8778                   
234   05/08/2021   21:32    -1.8778                   
235   05/08/2021   21:37    -1.8778                   
236   05/08/2021   21:42    -1.8778                   
237   05/08/2021   21:47    -1.8778                   
238   05/08/2021   21:52    -1.8778                   
239   05/08/2021   21:57    -1.8778                   
240   05/08/2021   22:02    -1.8778                   
241   05/08/2021   22:07    -1.8778                   
242   05/08/2021   22:12    -1.8778                   
243   05/08/2021   22:17    -1.8778                   
244   05/08/2021   22:22    -1.8778                   
245   05/08/2021   22:27    -1.8778                   
246   05/08/2021   22:32    -1.8778                   
247   05/08/2021   22:37    -1.8778                   
248   05/08/2021   22:42    -1.8778                   
249   05/08/2021   22:47    -1.8778                   
250   05/08/2021   22:52    -1.8778                   
251   05/08/2021   22:57    -1.8778                   
252   05/08/2021   23:02    -1.8778                   
253   05/08/2021   23:07    -1.8778                   
254   05/08/2021   23:12    -1.8778                   
255   05/08/2021   23:17    -1.8778                   
256   05/08/2021   23:22    -1.8778                   
257   05/08/2021   23:27    -1.8778                   
258   05/08/2021   23:32    -1.8778                   
259   05/08/2021   23:37    -1.8778                   
260   05/08/2021   23:42    -1.8778                   
261   05/08/2021   23:47    -1.8778                   
262   05/08/2021   23:52    -1.8778                   
263   05/08/2021   23:57    -1.8778                   
264   05/09/2021   0:02     -1.8778                   
265   05/09/2021   0:07     -1.8868                   
266   05/09/2021   0:12     -1.8948                   
267   05/09/2021   0:17     -1.9058                   
268   05/09/2021   0:22     -1.9168                   
269   05/09/2021   0:27     -1.9328                   
270   05/09/2021   0:32     -1.9498                   
271   05/09/2021   0:37     -1.9698                   
272   05/09/2021   0:42     -1.9938                   
273   05/09/2021   0:47     -2.0158                   
274   05/09/2021   0:52     -2.0208                   
275   05/09/2021   0:57     -2.0008                   
276   05/09/2021   1:02     -1.9828                   
277   05/09/2021   1:07     -1.9618                   
278   05/09/2021   1:12     -1.9458                   
279   05/09/2021   1:17     -1.9288                   
280   05/09/2021   1:22     -1.9128                   
281   05/09/2021   1:27     -1.8968                   
282   05/09/2021   1:32     -1.8818                   
283   05/09/2021   1:37     -1.8668                   
284   05/09/2021   1:42     -1.8538                   
285   05/09/2021   1:47     -1.8428                   
286   05/09/2021   1:52     -1.8308                   
287   05/09/2021   1:57     -1.8178                   
288   05/09/2021   2:02     -1.8228                   
289   05/09/2021   2:07     -1.8358                   
290   05/09/2021   2:12     -1.8528                   
291   05/09/2021   2:17     -1.8688                   
292   05/09/2021   2:22     -1.8868                   
293   05/09/2021   2:27     -1.9088                   
294   05/09/2021   2:32     -1.9328                   
295   05/09/2021   2:37     -1.9548                   
296   05/09/2021   2:42     -1.9828                   
297   05/09/2021   2:47     -2.0098                   
298   05/09/2021   2:52     -2.0228                   
299   05/09/2021   2:57     -2.0098                   
300   05/09/2021   3:02     -1.9988                   
301   05/09/2021   3:07     -1.9898                   
302   05/09/2021   3:12     -1.9788                   
303   05/09/2021   3:17     -1.9718                   
304   05/09/2021   3:22     -1.9618                   