[TITLE]
;;Project Title/Notes

[OPTIONS]
;;Option             Value
FLOW_UNITS           LPS
INFILTRATION         HORTON
FLOW_ROUTING         DYNWAVE
LINK_OFFSETS         DEPTH
MIN_SLOPE            0
ALLOW_PONDING        NO
SKIP_STEADY_STATE    NO

START_DATE           01/01/2020
START_TIME           00:00:00
REPORT_START_DATE    01/01/2020
REPORT_START_TIME    00:30:00
END_DATE             01/01/2020
END_TIME             23:45:00
SWEEP_START          02/01
SWEEP_END            12/31
DRY_DAYS             0
REPORT_STEP          00:30:00
WET_STEP             00:05:00
DRY_STEP             01:00:00
ROUTING_STEP         0:00:30 

INERTIAL_DAMPING     PARTIAL
NORMAL_FLOW_LIMITED  BOTH
FORCE_MAIN_EQUATION  H-W
VARIABLE_STEP        0.75
LENGTHENING_STEP     0
MIN_SURFAREA         1.167
MAX_TRIALS           8
HEAD_TOLERANCE       0.0015
SYS_FLOW_TOL         5
LAT_FLOW_TOL         5
MINIMUM_STEP         0.5
THREADS              1

[EVAPORATION]
;;Data Source    Parameters
;;-------------- ----------------
CONSTANT         0.0
DRY_ONLY         NO

[JUNCTIONS]
;;Name           Elevation  MaxDepth   InitDepth  SurDepth   Aponded   
;;-------------- ---------- ---------- ---------- ---------- ----------
1                120.5      0.75       0          0          0         
2                119.5      0.75       0          0          0         
3                118.7      0.75       0          0          0         
4                117.8      0.75       0          0          0         
5                119.8      0.75       0          0          0         
6                119        0.75       0          0          0         
7                119.8      0.75       0          0          0         
8                117        0.75       0          0          0         
9                115.3      0.75       0          0          0         
10               114.3      0.75       0          0          0         
11               113.5      0.75       0          0          0         
12               115.2      0.75       0          0          0         
13               112.2      0.75       0          0          0         
14               111.4      0.75       0          0          0         
15               117.3      0.75       0          0          0         
16               116.2      0.75       0          0          0         
17               115.2      0.75       0          0          0         
18               114.4      0.75       0          0          0         
19               126.4      0.75       0          0          0         
20               124.6      0.75       0          0          0         
21               123.8      0.75       0          0          0         
22               123.1      0.75       0          0          0         
23               121.6      0.75       0          0          0         
24               120.8      0.75       0          0          0         
25               124.8      0.75       0          0          0         
26               123.5      0.75       0          0          0         
27               124.3      0.75       0          0          0         
28               124.3      0.75       0          0          0         
29               121.7      0.75       0          0          0         
30               122.5      0.75       0          0          0         
31               120.5      0.75       0          0          0         
32               121.3      0.75       0          0          0         
33               119.8      0.75       0          0          0         
34               119.2      0.75       0          0          0         
35               120.4      0.75       0          0          0         
36               118.5      0.75       0          0          0         
37               122        0.75       0          0          0         
38               119.7      0.75       0          0          0         
39               117.3      0.75       0          0          0         
40               116.5      0.75       0          0          0         
41               115.6      0.75       0          0          0         
42               115        0.75       0          0          0         
43               116        0.75       0          0          0         
44               114.5      0.75       0          0          0         
45               114        0.75       0          0          0         
46               113.1      0.75       0          0          0         
47               112.7      0.75       0          0          0         
48               121.2      0.75       0          0          0         
49               120        0.75       0          0          0         
50               118.8      0.75       0          0          0         
51               117.6      0.75       0          0          0         
52               116.5      0.75       0          0          0         
53               115.7      0.75       0          0          0         
54               114.8      0.75       0          0          0         
55               114        0.75       0          0          0         
56               113.1      0.75       0          0          0         
57               112.3      0.75       0          0          0         
58               122.9      0.75       0          0          0         
59               122.1      0.75       0          0          0         
60               121.7      0.75       0          0          0         
61               120.9      0.75       0          0          0         
62               118.4      0.75       0          0          0         
63               117.2      0.75       0          0          0         
64               116.5      0.75       0          0          0         

[OUTFALLS]
;;Name           Elevation  Type       Stage Data       Gated    Route To        
;;-------------- ---------- ---------- ---------------- -------- ----------------
65               110.5      FREE                        NO                       

[CONDUITS]
;;Name           From Node        To Node          Length     Roughness  InOffset   OutOffset  InitFlow   MaxFlow   
;;-------------- ---------------- ---------------- ---------- ---------- ---------- ---------- ---------- ----------
1                1                2                161        0.012      0          0          0          0         
2                2                3                118        0.012      0          0          0          0         
3                3                4                121        0.012      0          0          0          0         
4                4                8                130        0.012      0          0          0          0         
5                8                9                279        0.012      0          0          0          0         
6                9                10               151        0.012      0          0          0          0         
7                10               11               129        0.012      0          0          0          0         
8                11               13               201        0.012      0          0          0          0         
9                13               14               124        0.012      0          0          0          0         
10               5                6                120        0.012      0          0          0          0         
11               7                6                126        0.012      0          0          0          0         
12               6                4                171        0.012      0          0          0          0         
13               15               16               170        0.012      0          0          0          0         
14               16               9                135        0.012      0          0          0          0         
15               17               10               136        0.012      0          0          0          0         
16               18               11               135        0.012      0          0          0          0         
17               12               10               145        0.012      0          0          0          0         
18               19               20               273        0.012      0          0          0          0         
19               20               21               122        0.012      0          0          0          0         
20               21               22               113        0.012      0          0          0          0         
21               22               23               235        0.012      0          0          0          0         
22               23               24               132        0.012      0          0          0          0         
23               25               21               155        0.012      0          0          0          0         
24               27               26               121        0.012      0          0          0          0         
25               28               26               126        0.012      0          0          0          0         
26               26               29               269        0.012      0          0          0          0         
27               30               29               126        0.012      0          0          0          0         
28               29               31               183        0.012      0          0          0          0         
29               32               31               126        0.012      0          0          0          0         
30               31               33               112        0.012      0          0          0          0         
31               33               34               88         0.012      0          0          0          0         
32               35               34               183        0.012      0          0          0          0         
33               34               36               105        0.012      0          0          0          0         
34               37               24               183        0.012      0          0          0          0         
35               24               38               180        0.012      0          0          0          0         
36               38               36               191        0.012      0          0          0          0         
37               36               39               179        0.012      0          0          0          0         
38               39               40               126        0.012      0          0          0          0         
39               40               41               136        0.012      0          0          0          0         
40               41               42               90         0.012      0          0          0          0         
41               43               42               148        0.012      0          0          0          0         
42               42               44               87         0.012      0          0          0          0         
43               44               46               213        0.012      0          0          0          0         
44               45               46               142        0.012      0          0          0          0         
45               46               47               65         0.012      0          0          0          0         
46               47               13               74         0.012      0          0          0          0         
47               58               59               114        0.012      0          0          0          0         
48               59               48               132        0.012      0          0          0          0         
49               60               61               114        0.012      0          0          0          0         
50               61               49               132        0.012      0          0          0          0         
51               48               49               183        0.012      0          0          0          0         
52               49               50               180        0.012      0          0          0          0         
53               50               51               191        0.012      0          0          0          0         
54               62               51               132        0.012      0          0          0          0         
55               51               52               178        0.012      0          0          0          0         
56               52               53               126        0.012      0          0          0          0         
57               63               64               116        0.012      0          0          0          0         
58               64               53               132        0.012      0          0          0          0         
59               53               54               136        0.012      0          0          0          0         
60               54               55               128        0.012      0          0          0          0         
61               55               56               137        0.012      0          0          0          0         
62               56               57               125        0.012      0          0          0          0         
63               57               14               141        0.012      0          0          0          0         
64               14               65               150        0.012      0          0          0          0         

[XSECTIONS]
;;Link           Shape        Geom1            Geom2      Geom3      Geom4      Barrels    Culvert   
;;-------------- ------------ ---------------- ---------- ---------- ---------- ---------- ----------
1                CIRCULAR     0.3              0          0          0          1                    
2                CIRCULAR     0.3              0          0          0          1                    
3                CIRCULAR     0.3              0          0          0          1                    
4                CIRCULAR     0.3              0          0          0          1                    
5                CIRCULAR     0.3              0          0          0          1                    
6                CIRCULAR     0.3              0          0          0          1                    
7                CIRCULAR     0.3              0          0          0          1                    
8                CIRCULAR     0.4              0          0          0          1                    
9                CIRCULAR     0.5              0          0          0          1                    
10               CIRCULAR     0.3              0          0          0          1                    
11               CIRCULAR     0.3              0          0          0          1                    
12               CIRCULAR     0.3              0          0          0          1                    
13               CIRCULAR     0.3              0          0          0          1                    
14               CIRCULAR     0.3              0          0          0          1                    
15               CIRCULAR     0.3              0          0          0          1                    
16               CIRCULAR     0.3              0          0          0          1                    
17               CIRCULAR     0.3              0          0          0          1                    
18               CIRCULAR     0.3              0          0          0          1                    
19               CIRCULAR     0.3              0          0          0          1                    
20               CIRCULAR     0.3              0          0          0          1                    
21               CIRCULAR     0.3              0          0          0          1                    
22               CIRCULAR     0.3              0          0          0          1                    
23               CIRCULAR     0.3              0          0          0          1                    
24               CIRCULAR     0.3              0          0          0          1                    
25               CIRCULAR     0.3              0          0          0          1                    
26               CIRCULAR     0.3              0          0          0          1                    
27               CIRCULAR     0.3              0          0          0          1                    
28               CIRCULAR     0.3              0          0          0          1                    
29               CIRCULAR     0.3              0          0          0          1                    
30               CIRCULAR     0.3              0          0          0          1                    
31               CIRCULAR     0.3              0          0          0          1                    
32               CIRCULAR     0.3              0          0          0          1                    
33               CIRCULAR     0.3              0          0          0          1                    
34               CIRCULAR     0.3              0          0          0          1                    
35               CIRCULAR     0.3              0          0          0          1                    
36               CIRCULAR     0.3              0          0          0          1                    
37               CIRCULAR     0.4              0          0          0          1                    
38               CIRCULAR     0.4              0          0          0          1                    
39               CIRCULAR     0.4              0          0          0          1                    
40               CIRCULAR     0.4              0          0          0          1                    
41               CIRCULAR     0.3              0          0          0          1                    
42               CIRCULAR     0.4              0          0          0          1                    
43               CIRCULAR     0.4              0          0          0          1                    
44               CIRCULAR     0.3              0          0          0          1                    
45               CIRCULAR     0.4              0          0          0          1                    
46               CIRCULAR     0.5              0          0          0          1                    
47               CIRCULAR     0.3              0          0          0          1                    
48               CIRCULAR     0.3              0          0          0          1                    
49               CIRCULAR     0.3              0          0          0          1                    
50               CIRCULAR     0.3              0          0          0          1                    
51               CIRCULAR     0.3              0          0          0          1                    
52               CIRCULAR     0.3              0          0          0          1                    
53               CIRCULAR     0.3              0          0          0          1                    
54               CIRCULAR     0.3              0          0          0          1                    
55               CIRCULAR     0.3              0          0          0          1                    
56               CIRCULAR     0.3              0          0          0          1                    
57               CIRCULAR     0.3              0          0          0          1                    
58               CIRCULAR     0.3              0          0          0          1                    
59               CIRCULAR     0.3              0          0          0          1                    
60               CIRCULAR     0.3              0          0          0          1                    
61               CIRCULAR     0.4              0          0          0          1                    
62               CIRCULAR     0.4              0          0          0          1                    
63               CIRCULAR     0.5              0          0          0          1                    
64               CIRCULAR     0.6              0          0          0          1                    

[INFLOWS]
;;   Constituent Time Series Type   Mfactor Sfactor                Baseline Pattern
1    FLOW        T1          FLOW   1       0.022435897000000003                 
2    FLOW        T2          FLOW   1       0.038879599                          
3    FLOW        T3          FLOW   1       0.033305463                          
4    FLOW        T4          FLOW   1       0.058807135                          
5    FLOW        T5          FLOW   1       0.016722408                          
6    FLOW        T6          FLOW   1       0.058110367999999996                 
7    FLOW        T7          FLOW   1       0.017558528                          
8    FLOW        T8          FLOW   1       0.043060201                          
9    FLOW        T9          FLOW   1       0.064799331                          
10   FLOW        T10         FLOW   1       0.078177258                          
11   FLOW        T11         FLOW   1       0.064799331                          
12   FLOW        T12         FLOW   1       0.020206243                          
13   FLOW        T13         FLOW   1       0.038322185                          
14   FLOW        T14         FLOW   1       1.0                                  
15   FLOW        T15         FLOW   1       0.023690078                          
16   FLOW        T16         FLOW   1       0.042502787                          
17   FLOW        T17         FLOW   1       0.018952062                          
18   FLOW        T18         FLOW   1       0.018812709                          
19   FLOW        T19         FLOW   1       0.043855422000000005                 
20   FLOW        T20         FLOW   1       0.063453815                          
21   FLOW        T21         FLOW   1       0.062650602                          
22   FLOW        T22         FLOW   1       0.055903614000000004                 
23   FLOW        T23         FLOW   1       0.058955823                          
24   FLOW        T24         FLOW   1       0.079518072                          
25   FLOW        T25         FLOW   1       0.024899598                          
26   FLOW        T26         FLOW   1       0.082891566                          
27   FLOW        T27         FLOW   1       0.019437751                          
28   FLOW        T28         FLOW   1       0.020240964                          
29   FLOW        T29         FLOW   1       0.092851406                          
30   FLOW        T30         FLOW   1       0.020240964                          
31   FLOW        T31         FLOW   1       0.067630522                          
32   FLOW        T32         FLOW   1       0.020240964                          
33   FLOW        T33         FLOW   1       0.032128514                          
34   FLOW        T34         FLOW   1       0.060401606                          
35   FLOW        T35         FLOW   1       0.02939759                           
36   FLOW        T36         FLOW   1       0.07630522099999999                  
37   FLOW        T37         FLOW   1       0.02939759                           
38   FLOW        T38         FLOW   1       0.059598394000000006                 
39   FLOW        T39         FLOW   1       0.067447046                          
40   FLOW        T40         FLOW   1       0.036510591                          
41   FLOW        T41         FLOW   1       0.031493868                          
42   FLOW        T42         FLOW   1       0.045289855                          
43   FLOW        T43         FLOW   1       0.020624303                          
44   FLOW        T44         FLOW   1       0.04180602                           
45   FLOW        T45         FLOW   1       0.019788183                          
46   FLOW        T46         FLOW   1       0.058528428                          
47   FLOW        T47         FLOW   1       0.019370123                          
48   FLOW        T48         FLOW   1       0.06981383                           
49   FLOW        T49         FLOW   1       0.10970744699999999                  
50   FLOW        T50         FLOW   1       0.082225177                          
51   FLOW        T51         FLOW   1       0.111037234                          
52   FLOW        T52         FLOW   1       0.067375887                          
53   FLOW        T53         FLOW   1       0.087322695                          
54   FLOW        T54         FLOW   1       0.058510638                          
55   FLOW        T55         FLOW   1       0.05873227                           
56   FLOW        T56         FLOW   1       0.058067376                          
57   FLOW        T57         FLOW   1       0.027703901                          
58   FLOW        T58         FLOW   1       0.025265957000000002                 
59   FLOW        T59         FLOW   1       0.054521277                          
60   FLOW        T60         FLOW   1       0.025265957000000002                 
61   FLOW        T61         FLOW   1       0.054521277                          
62   FLOW        T62         FLOW   1       0.029255319                          
63   FLOW        T63         FLOW   1       0.02570922                           
64   FLOW        T64         FLOW   1       0.05496453900000001                  

[TIMESERIES]
;;    Date   Time    Value               
T1           0:00    28.11142026       
T1           0:30    9.304119239       
T1           1:00    26.82249744       
T1           1:30    22.38849417       
T1           2:00    20.75707174       
T1           2:30    17.85334513       
T1           3:00               18.8648
T1           3:30               20.8882
T1           4:00               20.4584
T1           4:30               20.2279
T1           5:00               22.4505
T1           5:30               21.9988
T1           6:00                21.104
T1           6:30               23.8279
T1           7:00               27.1734
T1           7:30               36.7526
T1           8:00               48.2296
T1           8:30               51.2175
T1           9:00               58.4078
T1           9:30               60.6528
T1           10:00               61.368
T1           10:30              60.4435
T1           11:00   53.46999752       
T1           11:30   53.10193886       
T1           12:00   51.79655087       
T1           12:30   49.23979112       
T1           13:00   51.46164688       
T1           13:30   48.26582805       
T1           14:00   43.26162227       
T1           14:30   42.63960369       
T1           15:00   44.81103128       
T1           15:30   42.33663521       
T1           16:00   38.38643786       
T1           16:30   38.09909277       
T1           17:00   39.90752734       
T1           17:30   42.63960369       
T1           18:00   44.80878842       
T1           18:30   46.05855937       
T1           19:00   47.00775909       
T1           19:30   51.79655087       
T1           20:00   52.98213007       
T1           20:30   56.66566293       
T1           21:00   54.1388928        
T1           21:30   58.71145532       
T1           22:00   56.08609247       
T1           22:30   58.06895515       
T1           23:00   51.12666939       
T1           23:30   46.91872129       
T2           0:00    28.11142026       
T2           0:30    9.304119239       
T2           1:00    26.82249744       
T2           1:30    22.38849417       
T2           2:00    20.75707174       
T2           2:30    17.85334513       
T2           3:00                19.004
T2           3:30               21.0274
T2           4:00               20.5976
T2           4:30               20.3671
T2           5:00               22.5897
T2           5:30                22.138
T2           6:00               21.2432
T2           6:30               23.9671
T2           7:00               27.3126
T2           7:30               36.8918
T2           8:00               48.3688
T2           8:30               51.3567
T2           9:00                58.547
T2           9:30                60.792
T2           10:00              61.5072
T2           10:30              60.5827
T2           11:00   53.46999752       
T2           11:30   53.10193886       
T2           12:00   51.79655087       
T2           12:30   49.23979112       
T2           13:00   51.46164688       
T2           13:30   48.26582805       
T2           14:00   43.26162227       
T2           14:30   42.63960369       
T2           15:00   44.81103128       
T2           15:30   42.33663521       
T2           16:00   38.38643786       
T2           16:30   38.09909277       
T2           17:00   39.90752734       
T2           17:30   42.63960369       
T2           18:00   44.80878842       
T2           18:30   46.05855937       
T2           19:00   47.00775909       
T2           19:30   51.79655087       
T2           20:00   52.98213007       
T2           20:30   56.66566293       
T2           21:00   54.1388928        
T2           21:30   58.71145532       
T2           22:00   56.08609247       
T2           22:30   58.06895515       
T2           23:00   51.12666939       
T2           23:30   46.91872129       
T3           0:00    28.11142026       
T3           0:30    9.304119239       
T3           1:00    26.82249744       
T3           1:30    22.38849417       
T3           2:00    20.75707174       